*line regulation
.include ../AE01.08.06.012.cir
.param VIN=60
.dc V1 0 {VIN} 0.001
